Version 4
SHEET 1 1228 712
WIRE -512 -160 -672 -160
WIRE -432 -160 -512 -160
WIRE -192 -160 -352 -160
WIRE 320 -160 -192 -160
WIRE 560 -160 320 -160
WIRE 704 -160 560 -160
WIRE 752 -160 704 -160
WIRE -672 -144 -672 -160
WIRE -192 0 -192 -160
WIRE -16 0 -192 0
WIRE 192 16 48 16
WIRE 320 16 320 -160
WIRE -16 32 -112 32
WIRE -112 48 -112 32
WIRE 192 64 192 16
WIRE 256 64 192 64
FLAG 176 368 0
FLAG 176 288 vcc
FLAG 16 48 0
FLAG 16 -16 vcc
FLAG -112 128 0
FLAG -672 -64 0
FLAG 704 -160 out
FLAG -512 -160 in
FLAG 320 112 vcc
FLAG 560 -96 0
SYMBOL voltage 176 272 R0
WINDOW 123 0 0 Left 0
WINDOW 39 0 0 Left 0
SYMATTR InstName V1
SYMATTR Value 5
SYMBOL OpAmps\\opamp2 16 -48 R0
SYMATTR InstName U2
SYMATTR Value LMX58_LM2904
SYMBOL voltage -112 32 R0
WINDOW 123 0 0 Left 0
WINDOW 39 0 0 Left 0
SYMATTR InstName V3
SYMATTR Value 1
SYMBOL voltage -672 -160 R0
WINDOW 3 24 44 Left 2
WINDOW 123 0 0 Left 0
WINDOW 39 0 0 Left 0
SYMATTR InstName V4
SYMATTR Value SINE(2.5 3 10k)
SYMBOL res -336 -176 R90
WINDOW 0 0 56 VBottom 2
WINDOW 3 32 56 VTop 2
SYMATTR InstName R1
SYMATTR Value 33
SYMBOL npn 256 112 M180
SYMATTR InstName Q1
SYMATTR Value 2N3904
SYMBOL zener 576 -96 R180
WINDOW 0 24 64 Left 2
WINDOW 3 24 0 Left 2
SYMATTR InstName D1
SYMATTR Value 1N750
SYMATTR Description Diode
SYMATTR Type diode
TEXT 192 -304 Left 2 !.lib C:\\Users\\Anton\\git\\piezo_stage_controller\\sim\\snom187a\\old_models\\lmc6042.lib
TEXT -402 224 Left 2 !.tran 1m
TEXT 192 -280 Left 2 !.lib C:\\Users\\Anton\\git\\piezo_stage_controller\\sim\\lmx58_lm2904.lib
